
---------- Begin Simulation Statistics ----------
final_tick                               1647787456000                       # Number of ticks from beginning of simulation (restored from checkpoints and never reset)
host_inst_rate                                 158255                       # Simulator instruction rate (inst/s)
host_mem_usage                                 923268                       # Number of bytes of host memory used
host_op_rate                                   337081                       # Simulator op (including micro ops) rate (op/s)
host_seconds                                 35857.11                       # Real time elapsed on the host
host_tick_rate                               45954278                       # Simulator tick rate (ticks/s)
sim_freq                                 1000000000000                       # Frequency of simulated ticks
sim_insts                                  5674555585                       # Number of instructions simulated
sim_ops                                   12086732694                       # Number of ops (including micro ops) simulated
sim_seconds                                  1.647787                       # Number of seconds simulated
sim_ticks                                1647787456000                       # Number of ticks simulated
system.clk_domain.clock                          1000                       # Clock period in ticks
system.cpu.branchPred.BTBCorrect                    0                       # Number of correct BTB predictions (this stat may not work properly.
system.cpu.branchPred.BTBHitPct              0.000000                       # BTB Hit Percentage
system.cpu.branchPred.BTBHits                       0                       # Number of BTB hits
system.cpu.branchPred.BTBLookups           1169335564                       # Number of BTB lookups
system.cpu.branchPred.RASInCorrect                 14                       # Number of incorrect RAS predictions.
system.cpu.branchPred.condIncorrect          15165829                       # Number of conditional branches incorrect
system.cpu.branchPred.condPredicted         920801087                       # Number of conditional branches predicted
system.cpu.branchPred.indirectHits          867971042                       # Number of indirect target hits.
system.cpu.branchPred.indirectLookups      1169335564                       # Number of indirect predictor lookups.
system.cpu.branchPred.indirectMisses        301364522                       # Number of indirect misses.
system.cpu.branchPred.lookups              1442927529                       # Number of BP lookups
system.cpu.branchPred.usedRAS               264881476                       # Number of times the RAS was used to get a target.
system.cpu.branchPredindirectMispredicted      4072357                       # Number of mispredicted indirect branches.
system.cpu.cc_regfile_reads                5437083929                       # number of cc regfile reads
system.cpu.cc_regfile_writes               3397708841                       # number of cc regfile writes
system.cpu.commit.amos                              0                       # Number of atomic instructions committed
system.cpu.commit.branchMispredicts          15165898                       # The number of times a branch was mispredicted
system.cpu.commit.branches                 1395409750                       # Number of branches committed
system.cpu.commit.bw_lim_events             809156078                       # number cycles where commit BW limit reached
system.cpu.commit.commitNonSpecStalls            6787                       # The number of times commit has been forced to stall to communicate backwards
system.cpu.commit.commitSquashedInsts       449327402                       # The number of squashed insts skipped by commit
system.cpu.commit.committedInsts           5674555585                       # Number of instructions committed
system.cpu.commit.committedOps            12086732694                       # Number of ops (including micro ops) committed
system.cpu.commit.committed_per_cycle::samples   3230887176                       # Number of insts commited each cycle
system.cpu.commit.committed_per_cycle::mean     3.740995                       # Number of insts commited each cycle
system.cpu.commit.committed_per_cycle::stdev     2.924979                       # Number of insts commited each cycle
system.cpu.commit.committed_per_cycle::underflows            0      0.00%      0.00% # Number of insts commited each cycle
system.cpu.commit.committed_per_cycle::0    360662654     11.16%     11.16% # Number of insts commited each cycle
system.cpu.commit.committed_per_cycle::1    760131272     23.53%     34.69% # Number of insts commited each cycle
system.cpu.commit.committed_per_cycle::2    250474245      7.75%     42.44% # Number of insts commited each cycle
system.cpu.commit.committed_per_cycle::3    424840390     13.15%     55.59% # Number of insts commited each cycle
system.cpu.commit.committed_per_cycle::4    177910648      5.51%     61.10% # Number of insts commited each cycle
system.cpu.commit.committed_per_cycle::5    341444376     10.57%     71.67% # Number of insts commited each cycle
system.cpu.commit.committed_per_cycle::6     84853925      2.63%     74.29% # Number of insts commited each cycle
system.cpu.commit.committed_per_cycle::7     21413588      0.66%     74.96% # Number of insts commited each cycle
system.cpu.commit.committed_per_cycle::8    809156078     25.04%    100.00% # Number of insts commited each cycle
system.cpu.commit.committed_per_cycle::overflows            0      0.00%    100.00% # Number of insts commited each cycle
system.cpu.commit.committed_per_cycle::min_value            0                       # Number of insts commited each cycle
system.cpu.commit.committed_per_cycle::max_value            8                       # Number of insts commited each cycle
system.cpu.commit.committed_per_cycle::total   3230887176                       # Number of insts commited each cycle
system.cpu.commit.fp_insts                 2390916607                       # Number of committed floating point instructions.
system.cpu.commit.function_calls            255101070                       # Number of function calls committed.
system.cpu.commit.int_insts               10467476792                       # Number of committed integer instructions.
system.cpu.commit.loads                    1791176239                       # Number of loads committed
system.cpu.commit.membars                         584                       # Number of memory barriers committed
system.cpu.commit.op_class_0::No_OpClass        40784      0.00%      0.00% # Class of committed instruction
system.cpu.commit.op_class_0::IntAlu       7849206884     64.94%     64.94% # Class of committed instruction
system.cpu.commit.op_class_0::IntMult             686      0.00%     64.94% # Class of committed instruction
system.cpu.commit.op_class_0::IntDiv             3958      0.00%     64.94% # Class of committed instruction
system.cpu.commit.op_class_0::FloatAdd      551583490      4.56%     69.50% # Class of committed instruction
system.cpu.commit.op_class_0::FloatCmp              0      0.00%     69.50% # Class of committed instruction
system.cpu.commit.op_class_0::FloatCvt             96      0.00%     69.50% # Class of committed instruction
system.cpu.commit.op_class_0::FloatMult             0      0.00%     69.50% # Class of committed instruction
system.cpu.commit.op_class_0::FloatMultAcc            0      0.00%     69.50% # Class of committed instruction
system.cpu.commit.op_class_0::FloatDiv              0      0.00%     69.50% # Class of committed instruction
system.cpu.commit.op_class_0::FloatMisc             0      0.00%     69.50% # Class of committed instruction
system.cpu.commit.op_class_0::FloatSqrt             0      0.00%     69.50% # Class of committed instruction
system.cpu.commit.op_class_0::SimdAdd            6142      0.00%     69.50% # Class of committed instruction
system.cpu.commit.op_class_0::SimdAddAcc            0      0.00%     69.50% # Class of committed instruction
system.cpu.commit.op_class_0::SimdAlu       205617860      1.70%     71.21% # Class of committed instruction
system.cpu.commit.op_class_0::SimdCmp              14      0.00%     71.21% # Class of committed instruction
system.cpu.commit.op_class_0::SimdCvt           13354      0.00%     71.21% # Class of committed instruction
system.cpu.commit.op_class_0::SimdMisc       86535969      0.72%     71.92% # Class of committed instruction
system.cpu.commit.op_class_0::SimdMult              0      0.00%     71.92% # Class of committed instruction
system.cpu.commit.op_class_0::SimdMultAcc            0      0.00%     71.92% # Class of committed instruction
system.cpu.commit.op_class_0::SimdShift          3607      0.00%     71.92% # Class of committed instruction
system.cpu.commit.op_class_0::SimdShiftAcc            0      0.00%     71.92% # Class of committed instruction
system.cpu.commit.op_class_0::SimdDiv               0      0.00%     71.92% # Class of committed instruction
system.cpu.commit.op_class_0::SimdSqrt              0      0.00%     71.92% # Class of committed instruction
system.cpu.commit.op_class_0::SimdFloatAdd    240957427      1.99%     73.92% # Class of committed instruction
system.cpu.commit.op_class_0::SimdFloatAlu            0      0.00%     73.92% # Class of committed instruction
system.cpu.commit.op_class_0::SimdFloatCmp            0      0.00%     73.92% # Class of committed instruction
system.cpu.commit.op_class_0::SimdFloatCvt    150326969      1.24%     75.16% # Class of committed instruction
system.cpu.commit.op_class_0::SimdFloatDiv           17      0.00%     75.16% # Class of committed instruction
system.cpu.commit.op_class_0::SimdFloatMisc            0      0.00%     75.16% # Class of committed instruction
system.cpu.commit.op_class_0::SimdFloatMult    267541427      2.21%     77.37% # Class of committed instruction
system.cpu.commit.op_class_0::SimdFloatMultAcc            0      0.00%     77.37% # Class of committed instruction
system.cpu.commit.op_class_0::SimdFloatSqrt      3745832      0.03%     77.40% # Class of committed instruction
system.cpu.commit.op_class_0::SimdReduceAdd            0      0.00%     77.40% # Class of committed instruction
system.cpu.commit.op_class_0::SimdReduceAlu            0      0.00%     77.40% # Class of committed instruction
system.cpu.commit.op_class_0::SimdReduceCmp            0      0.00%     77.40% # Class of committed instruction
system.cpu.commit.op_class_0::SimdFloatReduceAdd            0      0.00%     77.40% # Class of committed instruction
system.cpu.commit.op_class_0::SimdFloatReduceCmp            0      0.00%     77.40% # Class of committed instruction
system.cpu.commit.op_class_0::SimdAes               0      0.00%     77.40% # Class of committed instruction
system.cpu.commit.op_class_0::SimdAesMix            0      0.00%     77.40% # Class of committed instruction
system.cpu.commit.op_class_0::SimdSha1Hash            0      0.00%     77.40% # Class of committed instruction
system.cpu.commit.op_class_0::SimdSha1Hash2            0      0.00%     77.40% # Class of committed instruction
system.cpu.commit.op_class_0::SimdSha256Hash            0      0.00%     77.40% # Class of committed instruction
system.cpu.commit.op_class_0::SimdSha256Hash2            0      0.00%     77.40% # Class of committed instruction
system.cpu.commit.op_class_0::SimdShaSigma2            0      0.00%     77.40% # Class of committed instruction
system.cpu.commit.op_class_0::SimdShaSigma3            0      0.00%     77.40% # Class of committed instruction
system.cpu.commit.op_class_0::SimdPredAlu            0      0.00%     77.40% # Class of committed instruction
system.cpu.commit.op_class_0::MemRead      1309333266     10.83%     88.24% # Class of committed instruction
system.cpu.commit.op_class_0::MemWrite      736646018      6.09%     94.33% # Class of committed instruction
system.cpu.commit.op_class_0::FloatMemRead    481842973      3.99%     98.32% # Class of committed instruction
system.cpu.commit.op_class_0::FloatMemWrite    203325921      1.68%    100.00% # Class of committed instruction
system.cpu.commit.op_class_0::IprAccess             0      0.00%    100.00% # Class of committed instruction
system.cpu.commit.op_class_0::InstPrefetch            0      0.00%    100.00% # Class of committed instruction
system.cpu.commit.op_class_0::total       12086732694                       # Class of committed instruction
system.cpu.commit.refs                     2731148178                       # Number of memory references committed
system.cpu.commit.swp_count                         0                       # Number of s/w prefetches committed
system.cpu.commit.vec_insts                         0                       # Number of committed Vector instructions.
system.cpu.committedInsts                  5674555585                       # Number of Instructions Simulated
system.cpu.committedOps                   12086732694                       # Number of Ops (including micro ops) Simulated
system.cpu.cpi                               0.580764                       # CPI: Cycles Per Instruction
system.cpu.cpi_total                         0.580764                       # CPI: Total CPI of All Threads
system.cpu.dcache.HardPFReq_avg_mshr_miss_latency::.cpu.dcache.prefetcher 54003.907522                       # average HardPFReq mshr miss latency
system.cpu.dcache.HardPFReq_avg_mshr_miss_latency::total 54003.907522                       # average HardPFReq mshr miss latency
system.cpu.dcache.HardPFReq_mshr_miss_latency::.cpu.dcache.prefetcher 132803115140                       # number of HardPFReq MSHR miss cycles
system.cpu.dcache.HardPFReq_mshr_miss_latency::total 132803115140                       # number of HardPFReq MSHR miss cycles
system.cpu.dcache.HardPFReq_mshr_miss_rate::.cpu.dcache.prefetcher          inf                       # mshr miss rate for HardPFReq accesses
system.cpu.dcache.HardPFReq_mshr_miss_rate::total          inf                       # mshr miss rate for HardPFReq accesses
system.cpu.dcache.HardPFReq_mshr_misses::.cpu.dcache.prefetcher      2459139                       # number of HardPFReq MSHR misses
system.cpu.dcache.HardPFReq_mshr_misses::total      2459139                       # number of HardPFReq MSHR misses
system.cpu.dcache.ReadReq_accesses::.cpu.data   1644291051                       # number of ReadReq accesses(hits+misses)
system.cpu.dcache.ReadReq_accesses::total   1644291051                       # number of ReadReq accesses(hits+misses)
system.cpu.dcache.ReadReq_avg_miss_latency::.cpu.data 26390.002920                       # average ReadReq miss latency
system.cpu.dcache.ReadReq_avg_miss_latency::total 26390.002920                       # average ReadReq miss latency
system.cpu.dcache.ReadReq_avg_mshr_miss_latency::.cpu.data 21730.066274                       # average ReadReq mshr miss latency
system.cpu.dcache.ReadReq_avg_mshr_miss_latency::total 21730.066274                       # average ReadReq mshr miss latency
system.cpu.dcache.ReadReq_hits::.cpu.data   1644239686                       # number of ReadReq hits
system.cpu.dcache.ReadReq_hits::total      1644239686                       # number of ReadReq hits
system.cpu.dcache.ReadReq_miss_latency::.cpu.data   1355522500                       # number of ReadReq miss cycles
system.cpu.dcache.ReadReq_miss_latency::total   1355522500                       # number of ReadReq miss cycles
system.cpu.dcache.ReadReq_miss_rate::.cpu.data     0.000031                       # miss rate for ReadReq accesses
system.cpu.dcache.ReadReq_miss_rate::total     0.000031                       # miss rate for ReadReq accesses
system.cpu.dcache.ReadReq_misses::.cpu.data        51365                       # number of ReadReq misses
system.cpu.dcache.ReadReq_misses::total         51365                       # number of ReadReq misses
system.cpu.dcache.ReadReq_mshr_hits::.cpu.data        27072                       # number of ReadReq MSHR hits
system.cpu.dcache.ReadReq_mshr_hits::total        27072                       # number of ReadReq MSHR hits
system.cpu.dcache.ReadReq_mshr_miss_latency::.cpu.data    527888500                       # number of ReadReq MSHR miss cycles
system.cpu.dcache.ReadReq_mshr_miss_latency::total    527888500                       # number of ReadReq MSHR miss cycles
system.cpu.dcache.ReadReq_mshr_miss_rate::.cpu.data     0.000015                       # mshr miss rate for ReadReq accesses
system.cpu.dcache.ReadReq_mshr_miss_rate::total     0.000015                       # mshr miss rate for ReadReq accesses
system.cpu.dcache.ReadReq_mshr_misses::.cpu.data        24293                       # number of ReadReq MSHR misses
system.cpu.dcache.ReadReq_mshr_misses::total        24293                       # number of ReadReq MSHR misses
system.cpu.dcache.SoftPFReq_accesses::.cpu.data         2882                       # number of SoftPFReq accesses(hits+misses)
system.cpu.dcache.SoftPFReq_accesses::total         2882                       # number of SoftPFReq accesses(hits+misses)
system.cpu.dcache.SoftPFReq_avg_mshr_miss_latency::.cpu.data 79118.421053                       # average SoftPFReq mshr miss latency
system.cpu.dcache.SoftPFReq_avg_mshr_miss_latency::total 79118.421053                       # average SoftPFReq mshr miss latency
system.cpu.dcache.SoftPFReq_hits::.cpu.data         2676                       # number of SoftPFReq hits
system.cpu.dcache.SoftPFReq_hits::total          2676                       # number of SoftPFReq hits
system.cpu.dcache.SoftPFReq_miss_rate::.cpu.data     0.071478                       # miss rate for SoftPFReq accesses
system.cpu.dcache.SoftPFReq_miss_rate::total     0.071478                       # miss rate for SoftPFReq accesses
system.cpu.dcache.SoftPFReq_misses::.cpu.data          206                       # number of SoftPFReq misses
system.cpu.dcache.SoftPFReq_misses::total          206                       # number of SoftPFReq misses
system.cpu.dcache.SoftPFReq_mshr_miss_latency::.cpu.data      9019500                       # number of SoftPFReq MSHR miss cycles
system.cpu.dcache.SoftPFReq_mshr_miss_latency::total      9019500                       # number of SoftPFReq MSHR miss cycles
system.cpu.dcache.SoftPFReq_mshr_miss_rate::.cpu.data     0.039556                       # mshr miss rate for SoftPFReq accesses
system.cpu.dcache.SoftPFReq_mshr_miss_rate::total     0.039556                       # mshr miss rate for SoftPFReq accesses
system.cpu.dcache.SoftPFReq_mshr_misses::.cpu.data          114                       # number of SoftPFReq MSHR misses
system.cpu.dcache.SoftPFReq_mshr_misses::total          114                       # number of SoftPFReq MSHR misses
system.cpu.dcache.WriteReq_accesses::.cpu.data    939971950                       # number of WriteReq accesses(hits+misses)
system.cpu.dcache.WriteReq_accesses::total    939971950                       # number of WriteReq accesses(hits+misses)
system.cpu.dcache.WriteReq_avg_miss_latency::.cpu.data 44345.978848                       # average WriteReq miss latency
system.cpu.dcache.WriteReq_avg_miss_latency::total 44345.978848                       # average WriteReq miss latency
system.cpu.dcache.WriteReq_avg_mshr_miss_latency::.cpu.data 43339.286810                       # average WriteReq mshr miss latency
system.cpu.dcache.WriteReq_avg_mshr_miss_latency::total 43339.286810                       # average WriteReq mshr miss latency
system.cpu.dcache.WriteReq_hits::.cpu.data    938505304                       # number of WriteReq hits
system.cpu.dcache.WriteReq_hits::total      938505304                       # number of WriteReq hits
system.cpu.dcache.WriteReq_miss_latency::.cpu.data  65039852494                       # number of WriteReq miss cycles
system.cpu.dcache.WriteReq_miss_latency::total  65039852494                       # number of WriteReq miss cycles
system.cpu.dcache.WriteReq_miss_rate::.cpu.data     0.001560                       # miss rate for WriteReq accesses
system.cpu.dcache.WriteReq_miss_rate::total     0.001560                       # miss rate for WriteReq accesses
system.cpu.dcache.WriteReq_misses::.cpu.data      1466646                       # number of WriteReq misses
system.cpu.dcache.WriteReq_misses::total      1466646                       # number of WriteReq misses
system.cpu.dcache.WriteReq_mshr_hits::.cpu.data         2712                       # number of WriteReq MSHR hits
system.cpu.dcache.WriteReq_mshr_hits::total         2712                       # number of WriteReq MSHR hits
system.cpu.dcache.WriteReq_mshr_miss_latency::.cpu.data  63445855497                       # number of WriteReq MSHR miss cycles
system.cpu.dcache.WriteReq_mshr_miss_latency::total  63445855497                       # number of WriteReq MSHR miss cycles
system.cpu.dcache.WriteReq_mshr_miss_rate::.cpu.data     0.001557                       # mshr miss rate for WriteReq accesses
system.cpu.dcache.WriteReq_mshr_miss_rate::total     0.001557                       # mshr miss rate for WriteReq accesses
system.cpu.dcache.WriteReq_mshr_misses::.cpu.data      1463934                       # number of WriteReq MSHR misses
system.cpu.dcache.WriteReq_mshr_misses::total      1463934                       # number of WriteReq MSHR misses
system.cpu.dcache.avg_blocked_cycles::no_mshrs    48.994236                       # average number of cycles each access was blocked
system.cpu.dcache.avg_blocked_cycles::no_targets   102.416667                       # average number of cycles each access was blocked
system.cpu.dcache.blocked::no_mshrs               694                       # number of cycles access was blocked
system.cpu.dcache.blocked::no_targets              12                       # number of cycles access was blocked
system.cpu.dcache.blocked_cycles::no_mshrs        34002                       # number of cycles access was blocked
system.cpu.dcache.blocked_cycles::no_targets         1229                       # number of cycles access was blocked
system.cpu.dcache.demand_accesses::.cpu.data   2584263001                       # number of demand (read+write) accesses
system.cpu.dcache.demand_accesses::total   2584263001                       # number of demand (read+write) accesses
system.cpu.dcache.demand_avg_miss_latency::.cpu.data 43738.401760                       # average overall miss latency
system.cpu.dcache.demand_avg_miss_latency::total 43738.401760                       # average overall miss latency
system.cpu.dcache.demand_avg_mshr_miss_latency::.cpu.data 42986.549765                       # average overall mshr miss latency
system.cpu.dcache.demand_avg_mshr_miss_latency::total 42986.549765                       # average overall mshr miss latency
system.cpu.dcache.demand_hits::.cpu.data   2582744990                       # number of demand (read+write) hits
system.cpu.dcache.demand_hits::total       2582744990                       # number of demand (read+write) hits
system.cpu.dcache.demand_miss_latency::.cpu.data  66395374994                       # number of demand (read+write) miss cycles
system.cpu.dcache.demand_miss_latency::total  66395374994                       # number of demand (read+write) miss cycles
system.cpu.dcache.demand_miss_rate::.cpu.data     0.000587                       # miss rate for demand accesses
system.cpu.dcache.demand_miss_rate::total     0.000587                       # miss rate for demand accesses
system.cpu.dcache.demand_misses::.cpu.data      1518011                       # number of demand (read+write) misses
system.cpu.dcache.demand_misses::total        1518011                       # number of demand (read+write) misses
system.cpu.dcache.demand_mshr_hits::.cpu.data        29784                       # number of demand (read+write) MSHR hits
system.cpu.dcache.demand_mshr_hits::total        29784                       # number of demand (read+write) MSHR hits
system.cpu.dcache.demand_mshr_miss_latency::.cpu.data  63973743997                       # number of demand (read+write) MSHR miss cycles
system.cpu.dcache.demand_mshr_miss_latency::total  63973743997                       # number of demand (read+write) MSHR miss cycles
system.cpu.dcache.demand_mshr_miss_rate::.cpu.data     0.000576                       # mshr miss rate for demand accesses
system.cpu.dcache.demand_mshr_miss_rate::total     0.000576                       # mshr miss rate for demand accesses
system.cpu.dcache.demand_mshr_misses::.cpu.data      1488227                       # number of demand (read+write) MSHR misses
system.cpu.dcache.demand_mshr_misses::total      1488227                       # number of demand (read+write) MSHR misses
system.cpu.dcache.overall_accesses::.cpu.data   2584265883                       # number of overall (read+write) accesses
system.cpu.dcache.overall_accesses::total   2584265883                       # number of overall (read+write) accesses
system.cpu.dcache.overall_avg_miss_latency::.cpu.data 43732.467094                       # average overall miss latency
system.cpu.dcache.overall_avg_miss_latency::total 43732.467094                       # average overall miss latency
system.cpu.dcache.overall_avg_mshr_miss_latency::.cpu.data 42989.317298                       # average overall mshr miss latency
system.cpu.dcache.overall_avg_mshr_miss_latency::.cpu.dcache.prefetcher 54003.907522                       # average overall mshr miss latency
system.cpu.dcache.overall_avg_mshr_miss_latency::total 49851.013466                       # average overall mshr miss latency
system.cpu.dcache.overall_hits::.cpu.data   2582747666                       # number of overall hits
system.cpu.dcache.overall_hits::total      2582747666                       # number of overall hits
system.cpu.dcache.overall_miss_latency::.cpu.data  66395374994                       # number of overall miss cycles
system.cpu.dcache.overall_miss_latency::total  66395374994                       # number of overall miss cycles
system.cpu.dcache.overall_miss_rate::.cpu.data     0.000587                       # miss rate for overall accesses
system.cpu.dcache.overall_miss_rate::total     0.000587                       # miss rate for overall accesses
system.cpu.dcache.overall_misses::.cpu.data      1518217                       # number of overall misses
system.cpu.dcache.overall_misses::total       1518217                       # number of overall misses
system.cpu.dcache.overall_mshr_hits::.cpu.data        29784                       # number of overall MSHR hits
system.cpu.dcache.overall_mshr_hits::total        29784                       # number of overall MSHR hits
system.cpu.dcache.overall_mshr_miss_latency::.cpu.data  63982763497                       # number of overall MSHR miss cycles
system.cpu.dcache.overall_mshr_miss_latency::.cpu.dcache.prefetcher 132803115140                       # number of overall MSHR miss cycles
system.cpu.dcache.overall_mshr_miss_latency::total 196785878637                       # number of overall MSHR miss cycles
system.cpu.dcache.overall_mshr_miss_rate::.cpu.data     0.000576                       # mshr miss rate for overall accesses
system.cpu.dcache.overall_mshr_miss_rate::.cpu.dcache.prefetcher          inf                       # mshr miss rate for overall accesses
system.cpu.dcache.overall_mshr_miss_rate::total     0.001528                       # mshr miss rate for overall accesses
system.cpu.dcache.overall_mshr_misses::.cpu.data      1488341                       # number of overall MSHR misses
system.cpu.dcache.overall_mshr_misses::.cpu.dcache.prefetcher      2459139                       # number of overall MSHR misses
system.cpu.dcache.overall_mshr_misses::total      3947480                       # number of overall MSHR misses
system.cpu.dcache.prefetcher.num_hwpf_issued      2550469                       # number of hwpf issued
system.cpu.dcache.prefetcher.pfBufferHit        10686                       # number of redundant prefetches already in prefetch queue
system.cpu.dcache.prefetcher.pfIdentified      2564836                       # number of prefetch candidates identified
system.cpu.dcache.prefetcher.pfInCache              0                       # number of redundant prefetches already in cache/mshr dropped
system.cpu.dcache.prefetcher.pfRemovedFull            0                       # number of prefetches dropped due to prefetch queue size
system.cpu.dcache.prefetcher.pfSpanPage         82189                       # number of prefetches that crossed the page
system.cpu.dcache.prefetcher.pwrStateResidencyTicks::UNDEFINED 1647787456000                       # Cumulative time (in ticks) in various power states
system.cpu.dcache.pwrStateResidencyTicks::UNDEFINED 1647787456000                       # Cumulative time (in ticks) in various power states
system.cpu.dcache.replacements                3946456                       # number of replacements
system.cpu.dcache.tags.age_task_id_blocks_1022::0           52                       # Occupied blocks per task id
system.cpu.dcache.tags.age_task_id_blocks_1022::1          277                       # Occupied blocks per task id
system.cpu.dcache.tags.age_task_id_blocks_1022::2          114                       # Occupied blocks per task id
system.cpu.dcache.tags.age_task_id_blocks_1024::0           87                       # Occupied blocks per task id
system.cpu.dcache.tags.age_task_id_blocks_1024::1          393                       # Occupied blocks per task id
system.cpu.dcache.tags.age_task_id_blocks_1024::2           96                       # Occupied blocks per task id
system.cpu.dcache.tags.age_task_id_blocks_1024::4            5                       # Occupied blocks per task id
system.cpu.dcache.tags.avg_refs            655.277581                       # Average number of references to valid blocks.
system.cpu.dcache.tags.data_accesses       5172479246                       # Number of data accesses
system.cpu.dcache.tags.occ_blocks::.cpu.data   411.704313                       # Average occupied blocks per requestor
system.cpu.dcache.tags.occ_blocks::.cpu.dcache.prefetcher   612.268969                       # Average occupied blocks per requestor
system.cpu.dcache.tags.occ_percent::.cpu.data     0.402055                       # Average percentage of cache occupancy
system.cpu.dcache.tags.occ_percent::.cpu.dcache.prefetcher     0.597919                       # Average percentage of cache occupancy
system.cpu.dcache.tags.occ_percent::total     0.999974                       # Average percentage of cache occupancy
system.cpu.dcache.tags.occ_task_id_blocks::1022          443                       # Occupied blocks per task id
system.cpu.dcache.tags.occ_task_id_blocks::1024          581                       # Occupied blocks per task id
system.cpu.dcache.tags.occ_task_id_percent::1022     0.432617                       # Percentage of cache occupancy per task id
system.cpu.dcache.tags.occ_task_id_percent::1024     0.567383                       # Percentage of cache occupancy per task id
system.cpu.dcache.tags.pwrStateResidencyTicks::UNDEFINED 1647787456000                       # Cumulative time (in ticks) in various power states
system.cpu.dcache.tags.sampled_refs           3947480                       # Sample count of references to valid blocks.
system.cpu.dcache.tags.tag_accesses        5172479246                       # Number of tag accesses
system.cpu.dcache.tags.tagsinuse          1023.973282                       # Cycle average of tags in use
system.cpu.dcache.tags.total_refs          2586695146                       # Total number of references to valid blocks.
system.cpu.dcache.tags.warmup_cycle            177500                       # Cycle when the warmup percentage was hit.
system.cpu.dcache.unused_prefetches              7028                       # number of HardPF blocks evicted w/o reference
system.cpu.dcache.writebacks::.writebacks      3914965                       # number of writebacks
system.cpu.dcache.writebacks::total           3914965                       # number of writebacks
system.cpu.decode.BlockedCycles             112463350                       # Number of cycles decode is blocked
system.cpu.decode.DecodedInsts            12725962350                       # Number of instructions handled by decode
system.cpu.decode.IdleCycles               1038515595                       # Number of cycles decode is idle
system.cpu.decode.RunCycles                2113687702                       # Number of cycles decode is running
system.cpu.decode.SquashCycles               15177687                       # Number of cycles decode is squashing
system.cpu.decode.UnblockCycles              15271289                       # Number of cycles decode is unblocking
system.cpu.dtb.rdAccesses                  1819271011                       # TLB accesses on read requests
system.cpu.dtb.rdMisses                          1257                       # TLB misses on read requests
system.cpu.dtb.walker.pwrStateResidencyTicks::UNDEFINED 1647787456000                       # Cumulative time (in ticks) in various power states
system.cpu.dtb.wrAccesses                   951761928                       # TLB accesses on write requests
system.cpu.dtb.wrMisses                         61310                       # TLB misses on write requests
system.cpu.dtb_walker_cache.avg_blocked_cycles::no_mshrs          nan                       # average number of cycles each access was blocked
system.cpu.dtb_walker_cache.avg_blocked_cycles::no_targets          nan                       # average number of cycles each access was blocked
system.cpu.dtb_walker_cache.blocked::no_mshrs            0                       # number of cycles access was blocked
system.cpu.dtb_walker_cache.blocked::no_targets            0                       # number of cycles access was blocked
system.cpu.dtb_walker_cache.blocked_cycles::no_mshrs            0                       # number of cycles access was blocked
system.cpu.dtb_walker_cache.blocked_cycles::no_targets            0                       # number of cycles access was blocked
system.cpu.dtb_walker_cache.pwrStateResidencyTicks::UNDEFINED 1647787456000                       # Cumulative time (in ticks) in various power states
system.cpu.dtb_walker_cache.replacements            0                       # number of replacements
system.cpu.dtb_walker_cache.tags.avg_refs          nan                       # Average number of references to valid blocks.
system.cpu.dtb_walker_cache.tags.data_accesses            0                       # Number of data accesses
system.cpu.dtb_walker_cache.tags.pwrStateResidencyTicks::UNDEFINED 1647787456000                       # Cumulative time (in ticks) in various power states
system.cpu.dtb_walker_cache.tags.sampled_refs            0                       # Sample count of references to valid blocks.
system.cpu.dtb_walker_cache.tags.tag_accesses            0                       # Number of tag accesses
system.cpu.dtb_walker_cache.tags.tagsinuse            0                       # Cycle average of tags in use
system.cpu.dtb_walker_cache.tags.total_refs            0                       # Total number of references to valid blocks.
system.cpu.dtb_walker_cache.tags.warmup_cycle            0                       # Cycle when the warmup percentage was hit.
system.cpu.fetch.Branches                  1442927529                       # Number of branches that fetch encountered
system.cpu.fetch.CacheLines                1046594784                       # Number of cache lines fetched
system.cpu.fetch.Cycles                    2223889230                       # Number of cycles fetch has run and was not squashing or blocked
system.cpu.fetch.IcacheSquashes               7664435                       # Number of outstanding Icache misses that were squashed
system.cpu.fetch.IcacheWaitRetryStallCycles          344                       # Number of stall cycles due to full MSHR
system.cpu.fetch.Insts                     6058187924                       # Number of instructions fetch has processed
system.cpu.fetch.MiscStallCycles                  182                       # Number of cycles fetch has spent waiting on interrupts, or bad addresses, or out of MSHRs
system.cpu.fetch.PendingQuiesceStallCycles           34                       # Number of stall cycles due to pending quiesce instructions
system.cpu.fetch.PendingTrapStallCycles           465                       # Number of stall cycles due to pending traps
system.cpu.fetch.SquashCycles                30355374                       # Number of cycles fetch has spent squashing
system.cpu.fetch.branchRate                  0.437838                       # Number of branch fetches per cycle
system.cpu.fetch.icacheStallCycles         1056047681                       # Number of cycles fetch is stalled on an Icache miss
system.cpu.fetch.predictedBranches         1132852518                       # Number of branches that fetch has predicted taken
system.cpu.fetch.rate                        1.838280                       # Number of inst fetches per cycle
system.cpu.fetch.rateDist::samples         3295115623                       # Number of instructions fetched each cycle (Total)
system.cpu.fetch.rateDist::mean              3.888730                       # Number of instructions fetched each cycle (Total)
system.cpu.fetch.rateDist::stdev             3.368599                       # Number of instructions fetched each cycle (Total)
system.cpu.fetch.rateDist::underflows               0      0.00%      0.00% # Number of instructions fetched each cycle (Total)
system.cpu.fetch.rateDist::0               1136393252     34.49%     34.49% # Number of instructions fetched each cycle (Total)
system.cpu.fetch.rateDist::1                145252066      4.41%     38.90% # Number of instructions fetched each cycle (Total)
system.cpu.fetch.rateDist::2                 80026448      2.43%     41.32% # Number of instructions fetched each cycle (Total)
system.cpu.fetch.rateDist::3                207720572      6.30%     47.63% # Number of instructions fetched each cycle (Total)
system.cpu.fetch.rateDist::4                148887666      4.52%     52.15% # Number of instructions fetched each cycle (Total)
system.cpu.fetch.rateDist::5                216667847      6.58%     58.72% # Number of instructions fetched each cycle (Total)
system.cpu.fetch.rateDist::6                 79720117      2.42%     61.14% # Number of instructions fetched each cycle (Total)
system.cpu.fetch.rateDist::7                515444343     15.64%     76.78% # Number of instructions fetched each cycle (Total)
system.cpu.fetch.rateDist::8                765003312     23.22%    100.00% # Number of instructions fetched each cycle (Total)
system.cpu.fetch.rateDist::overflows                0      0.00%    100.00% # Number of instructions fetched each cycle (Total)
system.cpu.fetch.rateDist::min_value                0                       # Number of instructions fetched each cycle (Total)
system.cpu.fetch.rateDist::max_value                8                       # Number of instructions fetched each cycle (Total)
system.cpu.fetch.rateDist::total           3295115623                       # Number of instructions fetched each cycle (Total)
system.cpu.fp_regfile_reads                3118916971                       # number of floating regfile reads
system.cpu.fp_regfile_writes               2200784867                       # number of floating regfile writes
system.cpu.icache.ReadReq_accesses::.cpu.inst   1046594782                       # number of ReadReq accesses(hits+misses)
system.cpu.icache.ReadReq_accesses::total   1046594782                       # number of ReadReq accesses(hits+misses)
system.cpu.icache.ReadReq_avg_miss_latency::.cpu.inst 14951.960611                       # average ReadReq miss latency
system.cpu.icache.ReadReq_avg_miss_latency::total 14951.960611                       # average ReadReq miss latency
system.cpu.icache.ReadReq_avg_mshr_miss_latency::.cpu.inst 14002.085220                       # average ReadReq mshr miss latency
system.cpu.icache.ReadReq_avg_mshr_miss_latency::total 14002.085220                       # average ReadReq mshr miss latency
system.cpu.icache.ReadReq_hits::.cpu.inst   1046435142                       # number of ReadReq hits
system.cpu.icache.ReadReq_hits::total      1046435142                       # number of ReadReq hits
system.cpu.icache.ReadReq_miss_latency::.cpu.inst   2386930992                       # number of ReadReq miss cycles
system.cpu.icache.ReadReq_miss_latency::total   2386930992                       # number of ReadReq miss cycles
system.cpu.icache.ReadReq_miss_rate::.cpu.inst     0.000153                       # miss rate for ReadReq accesses
system.cpu.icache.ReadReq_miss_rate::total     0.000153                       # miss rate for ReadReq accesses
system.cpu.icache.ReadReq_misses::.cpu.inst       159640                       # number of ReadReq misses
system.cpu.icache.ReadReq_misses::total        159640                       # number of ReadReq misses
system.cpu.icache.ReadReq_mshr_hits::.cpu.inst         7141                       # number of ReadReq MSHR hits
system.cpu.icache.ReadReq_mshr_hits::total         7141                       # number of ReadReq MSHR hits
system.cpu.icache.ReadReq_mshr_miss_latency::.cpu.inst   2135303994                       # number of ReadReq MSHR miss cycles
system.cpu.icache.ReadReq_mshr_miss_latency::total   2135303994                       # number of ReadReq MSHR miss cycles
system.cpu.icache.ReadReq_mshr_miss_rate::.cpu.inst     0.000146                       # mshr miss rate for ReadReq accesses
system.cpu.icache.ReadReq_mshr_miss_rate::total     0.000146                       # mshr miss rate for ReadReq accesses
system.cpu.icache.ReadReq_mshr_misses::.cpu.inst       152499                       # number of ReadReq MSHR misses
system.cpu.icache.ReadReq_mshr_misses::total       152499                       # number of ReadReq MSHR misses
system.cpu.icache.avg_blocked_cycles::no_mshrs    43.833333                       # average number of cycles each access was blocked
system.cpu.icache.avg_blocked_cycles::no_targets          nan                       # average number of cycles each access was blocked
system.cpu.icache.blocked::no_mshrs                66                       # number of cycles access was blocked
system.cpu.icache.blocked::no_targets               0                       # number of cycles access was blocked
system.cpu.icache.blocked_cycles::no_mshrs         2893                       # number of cycles access was blocked
system.cpu.icache.blocked_cycles::no_targets            0                       # number of cycles access was blocked
system.cpu.icache.demand_accesses::.cpu.inst   1046594782                       # number of demand (read+write) accesses
system.cpu.icache.demand_accesses::total   1046594782                       # number of demand (read+write) accesses
system.cpu.icache.demand_avg_miss_latency::.cpu.inst 14951.960611                       # average overall miss latency
system.cpu.icache.demand_avg_miss_latency::total 14951.960611                       # average overall miss latency
system.cpu.icache.demand_avg_mshr_miss_latency::.cpu.inst 14002.085220                       # average overall mshr miss latency
system.cpu.icache.demand_avg_mshr_miss_latency::total 14002.085220                       # average overall mshr miss latency
system.cpu.icache.demand_hits::.cpu.inst   1046435142                       # number of demand (read+write) hits
system.cpu.icache.demand_hits::total       1046435142                       # number of demand (read+write) hits
system.cpu.icache.demand_miss_latency::.cpu.inst   2386930992                       # number of demand (read+write) miss cycles
system.cpu.icache.demand_miss_latency::total   2386930992                       # number of demand (read+write) miss cycles
system.cpu.icache.demand_miss_rate::.cpu.inst     0.000153                       # miss rate for demand accesses
system.cpu.icache.demand_miss_rate::total     0.000153                       # miss rate for demand accesses
system.cpu.icache.demand_misses::.cpu.inst       159640                       # number of demand (read+write) misses
system.cpu.icache.demand_misses::total         159640                       # number of demand (read+write) misses
system.cpu.icache.demand_mshr_hits::.cpu.inst         7141                       # number of demand (read+write) MSHR hits
system.cpu.icache.demand_mshr_hits::total         7141                       # number of demand (read+write) MSHR hits
system.cpu.icache.demand_mshr_miss_latency::.cpu.inst   2135303994                       # number of demand (read+write) MSHR miss cycles
system.cpu.icache.demand_mshr_miss_latency::total   2135303994                       # number of demand (read+write) MSHR miss cycles
system.cpu.icache.demand_mshr_miss_rate::.cpu.inst     0.000146                       # mshr miss rate for demand accesses
system.cpu.icache.demand_mshr_miss_rate::total     0.000146                       # mshr miss rate for demand accesses
system.cpu.icache.demand_mshr_misses::.cpu.inst       152499                       # number of demand (read+write) MSHR misses
system.cpu.icache.demand_mshr_misses::total       152499                       # number of demand (read+write) MSHR misses
system.cpu.icache.overall_accesses::.cpu.inst   1046594782                       # number of overall (read+write) accesses
system.cpu.icache.overall_accesses::total   1046594782                       # number of overall (read+write) accesses
system.cpu.icache.overall_avg_miss_latency::.cpu.inst 14951.960611                       # average overall miss latency
system.cpu.icache.overall_avg_miss_latency::total 14951.960611                       # average overall miss latency
system.cpu.icache.overall_avg_mshr_miss_latency::.cpu.inst 14002.085220                       # average overall mshr miss latency
system.cpu.icache.overall_avg_mshr_miss_latency::total 14002.085220                       # average overall mshr miss latency
system.cpu.icache.overall_hits::.cpu.inst   1046435142                       # number of overall hits
system.cpu.icache.overall_hits::total      1046435142                       # number of overall hits
system.cpu.icache.overall_miss_latency::.cpu.inst   2386930992                       # number of overall miss cycles
system.cpu.icache.overall_miss_latency::total   2386930992                       # number of overall miss cycles
system.cpu.icache.overall_miss_rate::.cpu.inst     0.000153                       # miss rate for overall accesses
system.cpu.icache.overall_miss_rate::total     0.000153                       # miss rate for overall accesses
system.cpu.icache.overall_misses::.cpu.inst       159640                       # number of overall misses
system.cpu.icache.overall_misses::total        159640                       # number of overall misses
system.cpu.icache.overall_mshr_hits::.cpu.inst         7141                       # number of overall MSHR hits
system.cpu.icache.overall_mshr_hits::total         7141                       # number of overall MSHR hits
system.cpu.icache.overall_mshr_miss_latency::.cpu.inst   2135303994                       # number of overall MSHR miss cycles
system.cpu.icache.overall_mshr_miss_latency::total   2135303994                       # number of overall MSHR miss cycles
system.cpu.icache.overall_mshr_miss_rate::.cpu.inst     0.000146                       # mshr miss rate for overall accesses
system.cpu.icache.overall_mshr_miss_rate::total     0.000146                       # mshr miss rate for overall accesses
system.cpu.icache.overall_mshr_misses::.cpu.inst       152499                       # number of overall MSHR misses
system.cpu.icache.overall_mshr_misses::total       152499                       # number of overall MSHR misses
system.cpu.icache.pwrStateResidencyTicks::UNDEFINED 1647787456000                       # Cumulative time (in ticks) in various power states
system.cpu.icache.replacements                 151987                       # number of replacements
system.cpu.icache.tags.age_task_id_blocks_1024::0          129                       # Occupied blocks per task id
system.cpu.icache.tags.age_task_id_blocks_1024::1          291                       # Occupied blocks per task id
system.cpu.icache.tags.age_task_id_blocks_1024::2            9                       # Occupied blocks per task id
system.cpu.icache.tags.age_task_id_blocks_1024::4           83                       # Occupied blocks per task id
system.cpu.icache.tags.avg_refs           6862.914780                       # Average number of references to valid blocks.
system.cpu.icache.tags.data_accesses       2093342063                       # Number of data accesses
system.cpu.icache.tags.occ_blocks::.cpu.inst   511.989764                       # Average occupied blocks per requestor
system.cpu.icache.tags.occ_percent::.cpu.inst     0.999980                       # Average percentage of cache occupancy
system.cpu.icache.tags.occ_percent::total     0.999980                       # Average percentage of cache occupancy
system.cpu.icache.tags.occ_task_id_blocks::1024          512                       # Occupied blocks per task id
system.cpu.icache.tags.occ_task_id_percent::1024            1                       # Percentage of cache occupancy per task id
system.cpu.icache.tags.pwrStateResidencyTicks::UNDEFINED 1647787456000                       # Cumulative time (in ticks) in various power states
system.cpu.icache.tags.sampled_refs            152499                       # Sample count of references to valid blocks.
system.cpu.icache.tags.tag_accesses        2093342063                       # Number of tag accesses
system.cpu.icache.tags.tagsinuse           511.989764                       # Cycle average of tags in use
system.cpu.icache.tags.total_refs          1046587641                       # Total number of references to valid blocks.
system.cpu.icache.tags.warmup_cycle             87500                       # Cycle when the warmup percentage was hit.
system.cpu.icache.writebacks::.writebacks       151987                       # number of writebacks
system.cpu.icache.writebacks::total            151987                       # number of writebacks
system.cpu.idleCycles                          459290                       # Total number of cycles that the CPU has spent unscheduled due to idling
system.cpu.iew.branchMispredicts             16801365                       # Number of branch mispredicts detected at execute
system.cpu.iew.exec_branches               1408314443                       # Number of branches executed
system.cpu.iew.exec_nop                             0                       # number of nop insts executed
system.cpu.iew.exec_rate                     3.745486                       # Inst execution rate
system.cpu.iew.exec_refs                   2771035109                       # number of memory reference insts executed
system.cpu.iew.exec_stores                  951761910                       # Number of stores executed
system.cpu.iew.exec_swp                             0                       # number of swp insts executed
system.cpu.iew.iewBlockCycles                49165042                       # Number of cycles IEW is blocking
system.cpu.iew.iewDispLoadInsts            1845650476                       # Number of dispatched load instructions
system.cpu.iew.iewDispNonSpecInsts             715961                       # Number of dispatched non-speculative instructions
system.cpu.iew.iewDispSquashedInsts            634134                       # Number of squashed instructions skipped by dispatch
system.cpu.iew.iewDispStoreInsts            961016445                       # Number of dispatched store instructions
system.cpu.iew.iewDispatchedInsts         12536059801                       # Number of instructions dispatched to IQ
system.cpu.iew.iewExecLoadInsts            1819273199                       # Number of load instructions executed
system.cpu.iew.iewExecSquashedInsts          48464933                       # Number of squashed instructions skipped in execute
system.cpu.iew.iewExecutedInsts           12343528929                       # Number of executed instructions
system.cpu.iew.iewIQFullEvents                   5260                       # Number of times the IQ has become full, causing a stall
system.cpu.iew.iewIdleCycles                        0                       # Number of cycles IEW is idle
system.cpu.iew.iewLSQFullEvents                119245                       # Number of times the LSQ has become full, causing a stall
system.cpu.iew.iewSquashCycles               15177687                       # Number of cycles IEW is squashing
system.cpu.iew.iewUnblockCycles                125600                       # Number of cycles IEW is unblocking
system.cpu.iew.lsq.thread0.blockedLoads             0                       # Number of blocked loads due to partial load-store forwarding
system.cpu.iew.lsq.thread0.cacheBlocked           571                       # Number of times an access to memory failed due to the cache being blocked
system.cpu.iew.lsq.thread0.forwLoads        174975799                       # Number of loads that had data forwarded from stores
system.cpu.iew.lsq.thread0.ignoredResponses       134303                       # Number of memory responses ignored because the instruction is squashed
system.cpu.iew.lsq.thread0.invAddrLoads             0                       # Number of loads ignored due to an invalid address
system.cpu.iew.lsq.thread0.invAddrSwpfs             0                       # Number of software prefetches ignored due to an invalid address
system.cpu.iew.lsq.thread0.memOrderViolation        12733                       # Number of memory ordering violations
system.cpu.iew.lsq.thread0.rescheduledLoads          448                       # Number of loads that were rescheduled
system.cpu.iew.lsq.thread0.squashedLoads     54474237                       # Number of loads squashed
system.cpu.iew.lsq.thread0.squashedStores     21044506                       # Number of stores squashed
system.cpu.iew.memOrderViolationEvents          12733                       # Number of memory order violations
system.cpu.iew.predictedNotTakenIncorrect      7224555                       # Number of branches that were predicted not taken incorrectly
system.cpu.iew.predictedTakenIncorrect        9576810                       # Number of branches that were predicted taken incorrectly
system.cpu.iew.wb_consumers               13160188951                       # num instructions consuming a value
system.cpu.iew.wb_count                   12333955484                       # cumulative count of insts written-back
system.cpu.iew.wb_fanout                     0.636235                       # average fanout of values written-back
system.cpu.iew.wb_producers                8372969609                       # num instructions producing a value
system.cpu.iew.wb_rate                       3.742581                       # insts written-back per cycle
system.cpu.iew.wb_sent                    12337347277                       # cumulative count of insts sent to commit
system.cpu.int_regfile_reads              13860558632                       # number of integer regfile reads
system.cpu.int_regfile_writes              7694815088                       # number of integer regfile writes
system.cpu.interrupts.clk_domain.clock           8000                       # Clock period in ticks
system.cpu.interrupts.pwrStateResidencyTicks::UNDEFINED 1647787456000                       # Cumulative time (in ticks) in various power states
system.cpu.ipc                               1.721871                       # IPC: Instructions Per Cycle
system.cpu.ipc_total                         1.721871                       # IPC: Total IPC of All Threads
system.cpu.iq.FU_type_0::No_OpClass           1195851      0.01%      0.01% # Type of FU issued
system.cpu.iq.FU_type_0::IntAlu            8031583043     64.81%     64.82% # Type of FU issued
system.cpu.iq.FU_type_0::IntMult                  784      0.00%     64.82% # Type of FU issued
system.cpu.iq.FU_type_0::IntDiv                  4638      0.00%     64.82% # Type of FU issued
system.cpu.iq.FU_type_0::FloatAdd           574753183      4.64%     69.46% # Type of FU issued
system.cpu.iq.FU_type_0::FloatCmp                   0      0.00%     69.46% # Type of FU issued
system.cpu.iq.FU_type_0::FloatCvt                 126      0.00%     69.46% # Type of FU issued
system.cpu.iq.FU_type_0::FloatMult                  0      0.00%     69.46% # Type of FU issued
system.cpu.iq.FU_type_0::FloatMultAcc               0      0.00%     69.46% # Type of FU issued
system.cpu.iq.FU_type_0::FloatDiv                   0      0.00%     69.46% # Type of FU issued
system.cpu.iq.FU_type_0::FloatMisc                  0      0.00%     69.46% # Type of FU issued
system.cpu.iq.FU_type_0::FloatSqrt                  0      0.00%     69.46% # Type of FU issued
system.cpu.iq.FU_type_0::SimdAdd                 8186      0.00%     69.46% # Type of FU issued
system.cpu.iq.FU_type_0::SimdAddAcc                 0      0.00%     69.46% # Type of FU issued
system.cpu.iq.FU_type_0::SimdAlu            222956044      1.80%     71.26% # Type of FU issued
system.cpu.iq.FU_type_0::SimdCmp                   14      0.00%     71.26% # Type of FU issued
system.cpu.iq.FU_type_0::SimdCvt                18852      0.00%     71.26% # Type of FU issued
system.cpu.iq.FU_type_0::SimdMisc            88389194      0.71%     71.97% # Type of FU issued
system.cpu.iq.FU_type_0::SimdMult                   0      0.00%     71.97% # Type of FU issued
system.cpu.iq.FU_type_0::SimdMultAcc                0      0.00%     71.97% # Type of FU issued
system.cpu.iq.FU_type_0::SimdShift               5937      0.00%     71.97% # Type of FU issued
system.cpu.iq.FU_type_0::SimdShiftAcc               0      0.00%     71.97% # Type of FU issued
system.cpu.iq.FU_type_0::SimdDiv                    0      0.00%     71.97% # Type of FU issued
system.cpu.iq.FU_type_0::SimdSqrt                   0      0.00%     71.97% # Type of FU issued
system.cpu.iq.FU_type_0::SimdFloatAdd       254202451      2.05%     74.02% # Type of FU issued
system.cpu.iq.FU_type_0::SimdFloatAlu               0      0.00%     74.02% # Type of FU issued
system.cpu.iq.FU_type_0::SimdFloatCmp               0      0.00%     74.02% # Type of FU issued
system.cpu.iq.FU_type_0::SimdFloatCvt       152855205      1.23%     75.26% # Type of FU issued
system.cpu.iq.FU_type_0::SimdFloatDiv             140      0.00%     75.26% # Type of FU issued
system.cpu.iq.FU_type_0::SimdFloatMisc              0      0.00%     75.26% # Type of FU issued
system.cpu.iq.FU_type_0::SimdFloatMult      277464658      2.24%     77.50% # Type of FU issued
system.cpu.iq.FU_type_0::SimdFloatMultAcc            0      0.00%     77.50% # Type of FU issued
system.cpu.iq.FU_type_0::SimdFloatSqrt        3844640      0.03%     77.53% # Type of FU issued
system.cpu.iq.FU_type_0::SimdReduceAdd              0      0.00%     77.53% # Type of FU issued
system.cpu.iq.FU_type_0::SimdReduceAlu              0      0.00%     77.53% # Type of FU issued
system.cpu.iq.FU_type_0::SimdReduceCmp              0      0.00%     77.53% # Type of FU issued
system.cpu.iq.FU_type_0::SimdFloatReduceAdd            0      0.00%     77.53% # Type of FU issued
system.cpu.iq.FU_type_0::SimdFloatReduceCmp            0      0.00%     77.53% # Type of FU issued
system.cpu.iq.FU_type_0::SimdAes                    0      0.00%     77.53% # Type of FU issued
system.cpu.iq.FU_type_0::SimdAesMix                 0      0.00%     77.53% # Type of FU issued
system.cpu.iq.FU_type_0::SimdSha1Hash               0      0.00%     77.53% # Type of FU issued
system.cpu.iq.FU_type_0::SimdSha1Hash2              0      0.00%     77.53% # Type of FU issued
system.cpu.iq.FU_type_0::SimdSha256Hash             0      0.00%     77.53% # Type of FU issued
system.cpu.iq.FU_type_0::SimdSha256Hash2            0      0.00%     77.53% # Type of FU issued
system.cpu.iq.FU_type_0::SimdShaSigma2              0      0.00%     77.53% # Type of FU issued
system.cpu.iq.FU_type_0::SimdShaSigma3              0      0.00%     77.53% # Type of FU issued
system.cpu.iq.FU_type_0::SimdPredAlu                0      0.00%     77.53% # Type of FU issued
system.cpu.iq.FU_type_0::MemRead           1323775345     10.68%     88.21% # Type of FU issued
system.cpu.iq.FU_type_0::MemWrite           747055026      6.03%     94.24% # Type of FU issued
system.cpu.iq.FU_type_0::FloatMemRead       507700813      4.10%     98.34% # Type of FU issued
system.cpu.iq.FU_type_0::FloatMemWrite      206179732      1.66%    100.00% # Type of FU issued
system.cpu.iq.FU_type_0::IprAccess                  0      0.00%    100.00% # Type of FU issued
system.cpu.iq.FU_type_0::InstPrefetch               0      0.00%    100.00% # Type of FU issued
system.cpu.iq.FU_type_0::total            12391993862                       # Type of FU issued
system.cpu.iq.fp_alu_accesses              2535102502                       # Number of floating point alu accesses
system.cpu.iq.fp_inst_queue_reads          5066025759                       # Number of floating instruction queue reads
system.cpu.iq.fp_inst_queue_wakeup_accesses   2503920115                       # Number of floating instruction queue wakeup accesses
system.cpu.iq.fp_inst_queue_writes         2830286635                       # Number of floating instruction queue writes
system.cpu.iq.fu_busy_cnt                    11139308                       # FU busy when requested
system.cpu.iq.fu_busy_rate                   0.000899                       # FU busy rate (busy events/executed inst)
system.cpu.iq.fu_full::No_OpClass                   0      0.00%      0.00% # attempts to use FU when none available
system.cpu.iq.fu_full::IntAlu                 8672914     77.86%     77.86% # attempts to use FU when none available
system.cpu.iq.fu_full::IntMult                      0      0.00%     77.86% # attempts to use FU when none available
system.cpu.iq.fu_full::IntDiv                       0      0.00%     77.86% # attempts to use FU when none available
system.cpu.iq.fu_full::FloatAdd                     0      0.00%     77.86% # attempts to use FU when none available
system.cpu.iq.fu_full::FloatCmp                     0      0.00%     77.86% # attempts to use FU when none available
system.cpu.iq.fu_full::FloatCvt                     1      0.00%     77.86% # attempts to use FU when none available
system.cpu.iq.fu_full::FloatMult                    0      0.00%     77.86% # attempts to use FU when none available
system.cpu.iq.fu_full::FloatMultAcc                 0      0.00%     77.86% # attempts to use FU when none available
system.cpu.iq.fu_full::FloatDiv                     0      0.00%     77.86% # attempts to use FU when none available
system.cpu.iq.fu_full::FloatMisc                    0      0.00%     77.86% # attempts to use FU when none available
system.cpu.iq.fu_full::FloatSqrt                    0      0.00%     77.86% # attempts to use FU when none available
system.cpu.iq.fu_full::SimdAdd                      1      0.00%     77.86% # attempts to use FU when none available
system.cpu.iq.fu_full::SimdAddAcc                   0      0.00%     77.86% # attempts to use FU when none available
system.cpu.iq.fu_full::SimdAlu                 492491      4.42%     82.28% # attempts to use FU when none available
system.cpu.iq.fu_full::SimdCmp                      0      0.00%     82.28% # attempts to use FU when none available
system.cpu.iq.fu_full::SimdCvt                    274      0.00%     82.28% # attempts to use FU when none available
system.cpu.iq.fu_full::SimdMisc                   102      0.00%     82.28% # attempts to use FU when none available
system.cpu.iq.fu_full::SimdMult                     0      0.00%     82.28% # attempts to use FU when none available
system.cpu.iq.fu_full::SimdMultAcc                  0      0.00%     82.28% # attempts to use FU when none available
system.cpu.iq.fu_full::SimdShift                   65      0.00%     82.28% # attempts to use FU when none available
system.cpu.iq.fu_full::SimdShiftAcc                 0      0.00%     82.28% # attempts to use FU when none available
system.cpu.iq.fu_full::SimdDiv                      0      0.00%     82.28% # attempts to use FU when none available
system.cpu.iq.fu_full::SimdSqrt                     0      0.00%     82.28% # attempts to use FU when none available
system.cpu.iq.fu_full::SimdFloatAdd            429377      3.85%     86.14% # attempts to use FU when none available
system.cpu.iq.fu_full::SimdFloatAlu                 0      0.00%     86.14% # attempts to use FU when none available
system.cpu.iq.fu_full::SimdFloatCmp                 0      0.00%     86.14% # attempts to use FU when none available
system.cpu.iq.fu_full::SimdFloatCvt                36      0.00%     86.14% # attempts to use FU when none available
system.cpu.iq.fu_full::SimdFloatDiv                 0      0.00%     86.14% # attempts to use FU when none available
system.cpu.iq.fu_full::SimdFloatMisc                0      0.00%     86.14% # attempts to use FU when none available
system.cpu.iq.fu_full::SimdFloatMult          1041386      9.35%     95.49% # attempts to use FU when none available
system.cpu.iq.fu_full::SimdFloatMultAcc             0      0.00%     95.49% # attempts to use FU when none available
system.cpu.iq.fu_full::SimdFloatSqrt                0      0.00%     95.49% # attempts to use FU when none available
system.cpu.iq.fu_full::SimdReduceAdd                0      0.00%     95.49% # attempts to use FU when none available
system.cpu.iq.fu_full::SimdReduceAlu                0      0.00%     95.49% # attempts to use FU when none available
system.cpu.iq.fu_full::SimdReduceCmp                0      0.00%     95.49% # attempts to use FU when none available
system.cpu.iq.fu_full::SimdFloatReduceAdd            0      0.00%     95.49% # attempts to use FU when none available
system.cpu.iq.fu_full::SimdFloatReduceCmp            0      0.00%     95.49% # attempts to use FU when none available
system.cpu.iq.fu_full::SimdAes                      0      0.00%     95.49% # attempts to use FU when none available
system.cpu.iq.fu_full::SimdAesMix                   0      0.00%     95.49% # attempts to use FU when none available
system.cpu.iq.fu_full::SimdSha1Hash                 0      0.00%     95.49% # attempts to use FU when none available
system.cpu.iq.fu_full::SimdSha1Hash2                0      0.00%     95.49% # attempts to use FU when none available
system.cpu.iq.fu_full::SimdSha256Hash               0      0.00%     95.49% # attempts to use FU when none available
system.cpu.iq.fu_full::SimdSha256Hash2              0      0.00%     95.49% # attempts to use FU when none available
system.cpu.iq.fu_full::SimdShaSigma2                0      0.00%     95.49% # attempts to use FU when none available
system.cpu.iq.fu_full::SimdShaSigma3                0      0.00%     95.49% # attempts to use FU when none available
system.cpu.iq.fu_full::SimdPredAlu                  0      0.00%     95.49% # attempts to use FU when none available
system.cpu.iq.fu_full::MemRead                 275302      2.47%     97.96% # attempts to use FU when none available
system.cpu.iq.fu_full::MemWrite                 21664      0.19%     98.15% # attempts to use FU when none available
system.cpu.iq.fu_full::FloatMemRead            177955      1.60%     99.75% # attempts to use FU when none available
system.cpu.iq.fu_full::FloatMemWrite            27740      0.25%    100.00% # attempts to use FU when none available
system.cpu.iq.fu_full::IprAccess                    0      0.00%    100.00% # attempts to use FU when none available
system.cpu.iq.fu_full::InstPrefetch                 0      0.00%    100.00% # attempts to use FU when none available
system.cpu.iq.int_alu_accesses             9866834817                       # Number of integer alu accesses
system.cpu.iq.int_inst_queue_reads        23025639645                       # Number of integer instruction queue reads
system.cpu.iq.int_inst_queue_wakeup_accesses   9830035369                       # Number of integer instruction queue wakeup accesses
system.cpu.iq.int_inst_queue_writes       10155112310                       # Number of integer instruction queue writes
system.cpu.iq.iqInstsAdded                12535010320                       # Number of instructions added to the IQ (excludes non-spec)
system.cpu.iq.iqInstsIssued               12391993862                       # Number of instructions issued
system.cpu.iq.iqNonSpecInstsAdded             1049481                       # Number of non-speculative instructions added to the IQ
system.cpu.iq.iqSquashedInstsExamined       449327106                       # Number of squashed instructions iterated over during squash; mainly for profiling
system.cpu.iq.iqSquashedInstsIssued           1422749                       # Number of squashed instructions issued
system.cpu.iq.iqSquashedNonSpecRemoved        1042694                       # Number of squashed non-spec instructions that were removed
system.cpu.iq.iqSquashedOperandsExamined    518444266                       # Number of squashed operands that are examined and possibly removed from graph
system.cpu.iq.issued_per_cycle::samples    3295115623                       # Number of insts issued each cycle
system.cpu.iq.issued_per_cycle::mean         3.760716                       # Number of insts issued each cycle
system.cpu.iq.issued_per_cycle::stdev        2.375290                       # Number of insts issued each cycle
system.cpu.iq.issued_per_cycle::underflows            0      0.00%      0.00% # Number of insts issued each cycle
system.cpu.iq.issued_per_cycle::0           254935638      7.74%      7.74% # Number of insts issued each cycle
system.cpu.iq.issued_per_cycle::1           399743632     12.13%     19.87% # Number of insts issued each cycle
system.cpu.iq.issued_per_cycle::2           551028987     16.72%     36.59% # Number of insts issued each cycle
system.cpu.iq.issued_per_cycle::3           333811408     10.13%     46.72% # Number of insts issued each cycle
system.cpu.iq.issued_per_cycle::4           556885306     16.90%     63.62% # Number of insts issued each cycle
system.cpu.iq.issued_per_cycle::5           392388818     11.91%     75.53% # Number of insts issued each cycle
system.cpu.iq.issued_per_cycle::6           265353911      8.05%     83.58% # Number of insts issued each cycle
system.cpu.iq.issued_per_cycle::7           220594132      6.69%     90.28% # Number of insts issued each cycle
system.cpu.iq.issued_per_cycle::8           320373791      9.72%    100.00% # Number of insts issued each cycle
system.cpu.iq.issued_per_cycle::overflows            0      0.00%    100.00% # Number of insts issued each cycle
system.cpu.iq.issued_per_cycle::min_value            0                       # Number of insts issued each cycle
system.cpu.iq.issued_per_cycle::max_value            8                       # Number of insts issued each cycle
system.cpu.iq.issued_per_cycle::total      3295115623                       # Number of insts issued each cycle
system.cpu.iq.rate                           3.760192                       # Inst issue rate
system.cpu.iq.vec_alu_accesses                      0                       # Number of vector alu accesses
system.cpu.iq.vec_inst_queue_reads                  0                       # Number of vector instruction queue reads
system.cpu.iq.vec_inst_queue_wakeup_accesses            0                       # Number of vector instruction queue wakeup accesses
system.cpu.iq.vec_inst_queue_writes                 0                       # Number of vector instruction queue writes
system.cpu.itb.rdAccesses                           0                       # TLB accesses on read requests
system.cpu.itb.rdMisses                             0                       # TLB misses on read requests
system.cpu.itb.walker.pwrStateResidencyTicks::UNDEFINED 1647787456000                       # Cumulative time (in ticks) in various power states
system.cpu.itb.wrAccesses                  1046594866                       # TLB accesses on write requests
system.cpu.itb.wrMisses                           406                       # TLB misses on write requests
system.cpu.itb_walker_cache.avg_blocked_cycles::no_mshrs          nan                       # average number of cycles each access was blocked
system.cpu.itb_walker_cache.avg_blocked_cycles::no_targets          nan                       # average number of cycles each access was blocked
system.cpu.itb_walker_cache.blocked::no_mshrs            0                       # number of cycles access was blocked
system.cpu.itb_walker_cache.blocked::no_targets            0                       # number of cycles access was blocked
system.cpu.itb_walker_cache.blocked_cycles::no_mshrs            0                       # number of cycles access was blocked
system.cpu.itb_walker_cache.blocked_cycles::no_targets            0                       # number of cycles access was blocked
system.cpu.itb_walker_cache.pwrStateResidencyTicks::UNDEFINED 1647787456000                       # Cumulative time (in ticks) in various power states
system.cpu.itb_walker_cache.replacements            0                       # number of replacements
system.cpu.itb_walker_cache.tags.avg_refs          nan                       # Average number of references to valid blocks.
system.cpu.itb_walker_cache.tags.data_accesses            0                       # Number of data accesses
system.cpu.itb_walker_cache.tags.pwrStateResidencyTicks::UNDEFINED 1647787456000                       # Cumulative time (in ticks) in various power states
system.cpu.itb_walker_cache.tags.sampled_refs            0                       # Sample count of references to valid blocks.
system.cpu.itb_walker_cache.tags.tag_accesses            0                       # Number of tag accesses
system.cpu.itb_walker_cache.tags.tagsinuse            0                       # Cycle average of tags in use
system.cpu.itb_walker_cache.tags.total_refs            0                       # Total number of references to valid blocks.
system.cpu.itb_walker_cache.tags.warmup_cycle            0                       # Cycle when the warmup percentage was hit.
system.cpu.memDep0.conflictingLoads          63136590                       # Number of conflicting loads.
system.cpu.memDep0.conflictingStores          1679355                       # Number of conflicting stores.
system.cpu.memDep0.insertedLoads           1845650476                       # Number of loads inserted to the mem dependence unit.
system.cpu.memDep0.insertedStores           961016445                       # Number of stores inserted to the mem dependence unit.
system.cpu.misc_regfile_reads              5972601692                       # number of misc regfile reads
system.cpu.misc_regfile_writes                     55                       # number of misc regfile writes
system.cpu.numCycles                       3295574913                       # number of cpu cycles simulated
system.cpu.numWorkItemsCompleted                    0                       # number of work items this cpu completed
system.cpu.numWorkItemsStarted                      0                       # number of work items this cpu started
system.cpu.pwrStateResidencyTicks::ON    1647787456000                       # Cumulative time (in ticks) in various power states
system.cpu.rename.BlockCycles                49270302                       # Number of cycles rename is blocking
system.cpu.rename.CommittedMaps           13049802602                       # Number of HB maps that are committed
system.cpu.rename.FullRegisterEvents                3                       # Number of times there has been no free registers
system.cpu.rename.IQFullEvents                 423516                       # Number of times rename has blocked due to IQ full
system.cpu.rename.IdleCycles               1051692518                       # Number of cycles rename is idle
system.cpu.rename.LQFullEvents                  28469                       # Number of times rename has blocked due to LQ full
system.cpu.rename.ROBFullEvents                 13693                       # Number of times rename has blocked due to ROB full
system.cpu.rename.RenameLookups           29126062520                       # Number of register rename lookups that rename has made
system.cpu.rename.RenamedInsts            12633474131                       # Number of instructions processed by rename
system.cpu.rename.RenamedOperands         13606693288                       # Number of destination operands rename has renamed
system.cpu.rename.RunCycles                2115686649                       # Number of cycles rename is running
system.cpu.rename.SQFullEvents               56784608                       # Number of times rename has blocked due to SQ full
system.cpu.rename.SquashCycles               15177687                       # Number of cycles rename is squashing
system.cpu.rename.UnblockCycles              58456602                       # Number of cycles rename is unblocking
system.cpu.rename.UndoneMaps                556890686                       # Number of HB maps that are undone due to squashing
system.cpu.rename.fp_rename_lookups        3406237118                       # Number of floating rename lookups
system.cpu.rename.int_rename_lookups      14108871120                       # Number of integer rename lookups
system.cpu.rename.serializeStallCycles        4831865                       # count of cycles rename stalled for serializing inst
system.cpu.rename.serializingInsts             543154                       # count of serializing insts renamed
system.cpu.rename.skidInsts                  22075124                       # count of insts added to the skid buffer
system.cpu.rename.tempSerializingInsts         545091                       # count of temporary serializing insts renamed
system.cpu.rob.rob_reads                  14957791194                       # The number of ROB reads
system.cpu.rob.rob_writes                 25136438508                       # The number of ROB writes
system.cpu.timesIdled                           44662                       # Number of times that the entire CPU went into an idle state and unscheduled itself
system.cpu.workload.numSyscalls                   173                       # Number of system calls
system.cpu_clk_domain.clock                       500                       # Clock period in ticks
system.cpu_voltage_domain.voltage                   1                       # Voltage in Volts
system.l2.CleanEvict_mshr_miss_rate::.writebacks          inf                       # mshr miss rate for CleanEvict accesses
system.l2.CleanEvict_mshr_miss_rate::total          inf                       # mshr miss rate for CleanEvict accesses
system.l2.CleanEvict_mshr_misses::.writebacks          495                       # number of CleanEvict MSHR misses
system.l2.CleanEvict_mshr_misses::total           495                       # number of CleanEvict MSHR misses
system.l2.HardPFReq_avg_mshr_miss_latency::.l2.prefetcher 65115.738486                       # average HardPFReq mshr miss latency
[...]
system.mem_ctrls.wrQLenPdf::26                 212806                       # What write queue length does an incoming req see
system.mem_ctrls.wrQLenPdf::27                 208172                       # What write queue length does an incoming req see
system.mem_ctrls.wrQLenPdf::28                 215319                       # What write queue length does an incoming req see
system.mem_ctrls.wrQLenPdf::29                 255979                       # What write queue length does an incoming req see
system.mem_ctrls.wrQLenPdf::30                 225424                       # What write queue length does an incoming req see
system.mem_ctrls.wrQLenPdf::31                 316065                       # What write queue length does an incoming req see
system.mem_ctrls.wrQLenPdf::32                 252660                       # What write queue length does an incoming req see
system.mem_ctrls.wrQLenPdf::33                   3558                       # What write queue length does an incoming req see
system.mem_ctrls.wrQLenPdf::34                   1225                       # What write queue length does an incoming req see
system.mem_ctrls.wrQLenPdf::35                    387                       # What write queue length does an incoming req see
system.mem_ctrls.wrQLenPdf::36                     97                       # What write queue length does an incoming req see
system.mem_ctrls.wrQLenPdf::37                     21                       # What write queue length does an incoming req see
system.mem_ctrls.wrQLenPdf::38                      4                       # What write queue length does an incoming req see
system.mem_ctrls.wrQLenPdf::39                      2                       # What write queue length does an incoming req see
system.mem_ctrls.wrQLenPdf::40                      1                       # What write queue length does an incoming req see
system.mem_ctrls.wrQLenPdf::41                      0                       # What write queue length does an incoming req see
system.mem_ctrls.wrQLenPdf::42                      0                       # What write queue length does an incoming req see
system.mem_ctrls.wrQLenPdf::43                      0                       # What write queue length does an incoming req see
system.mem_ctrls.wrQLenPdf::44                      0                       # What write queue length does an incoming req see
system.mem_ctrls.wrQLenPdf::45                      0                       # What write queue length does an incoming req see
system.mem_ctrls.wrQLenPdf::46                      0                       # What write queue length does an incoming req see
system.mem_ctrls.wrQLenPdf::47                      0                       # What write queue length does an incoming req see
system.mem_ctrls.wrQLenPdf::48                      0                       # What write queue length does an incoming req see
system.mem_ctrls.wrQLenPdf::49                      0                       # What write queue length does an incoming req see
system.mem_ctrls.wrQLenPdf::50                      0                       # What write queue length does an incoming req see
system.mem_ctrls.wrQLenPdf::51                      0                       # What write queue length does an incoming req see
system.mem_ctrls.wrQLenPdf::52                      0                       # What write queue length does an incoming req see
system.mem_ctrls.wrQLenPdf::53                      0                       # What write queue length does an incoming req see
system.mem_ctrls.wrQLenPdf::54                      0                       # What write queue length does an incoming req see
system.mem_ctrls.wrQLenPdf::55                      0                       # What write queue length does an incoming req see
system.mem_ctrls.wrQLenPdf::56                      0                       # What write queue length does an incoming req see
system.mem_ctrls.wrQLenPdf::57                      0                       # What write queue length does an incoming req see
system.mem_ctrls.wrQLenPdf::58                      0                       # What write queue length does an incoming req see
system.mem_ctrls.wrQLenPdf::59                      0                       # What write queue length does an incoming req see
system.mem_ctrls.wrQLenPdf::60                      0                       # What write queue length does an incoming req see
system.mem_ctrls.wrQLenPdf::61                      0                       # What write queue length does an incoming req see
system.mem_ctrls.wrQLenPdf::62                      0                       # What write queue length does an incoming req see
system.mem_ctrls.wrQLenPdf::63                      0                       # What write queue length does an incoming req see
system.mem_ctrls.writeBursts                  3875379                       # Number of DRAM write bursts, including those merged in the write queue
system.mem_ctrls.writePktSize::0                    0                       # Write request sizes (log2)
system.mem_ctrls.writePktSize::1                    0                       # Write request sizes (log2)
system.mem_ctrls.writePktSize::2                    0                       # Write request sizes (log2)
system.mem_ctrls.writePktSize::3                    0                       # Write request sizes (log2)
system.mem_ctrls.writePktSize::4                    0                       # Write request sizes (log2)
system.mem_ctrls.writePktSize::5                    0                       # Write request sizes (log2)
system.mem_ctrls.writePktSize::6              3875379                       # Write request sizes (log2)
system.mem_ctrls.writeReqs                    3875379                       # Number of write requests accepted
system.mem_ctrls.writeRowHitRate                89.69                       # Row buffer hit rate for writes
system.mem_ctrls.writeRowHits                 3475915                       # Number of row buffer hits during writes
system.mem_ctrls_0.actBackEnergy         344332766040                       # Energy for active background per rank (pJ)
system.mem_ctrls_0.actEnergy               3092755260                       # Energy for activate commands per rank (pJ)
system.mem_ctrls_0.actPowerDownEnergy               0                       # Energy for active power-down per rank (pJ)
system.mem_ctrls_0.averagePower            513.432171                       # Core power per rank (mW)
system.mem_ctrls_0.memoryStateTime::IDLE 884888079049                       # Time in different power states
system.mem_ctrls_0.memoryStateTime::REF   55023020000                       # Time in different power states
system.mem_ctrls_0.memoryStateTime::SREF            0                       # Time in different power states
system.mem_ctrls_0.memoryStateTime::PRE_PDN            0                       # Time in different power states
system.mem_ctrls_0.memoryStateTime::ACT  707876356951                       # Time in different power states
system.mem_ctrls_0.memoryStateTime::ACT_PDN            0                       # Time in different power states
system.mem_ctrls_0.preBackEnergy         342785948640                       # Energy for precharge background per rank (pJ)
system.mem_ctrls_0.preEnergy               1643808045                       # Energy for precharge commands per rank (pJ)
system.mem_ctrls_0.prePowerDownEnergy               0                       # Energy for precharge power-down per rank (pJ)
system.mem_ctrls_0.readEnergy             13986681660                       # Energy for read commands per rank (pJ)
system.mem_ctrls_0.refreshEnergy         130074419280.000015                       # Energy for refresh commands per rank (pJ)
system.mem_ctrls_0.selfRefreshEnergy                0                       # Energy for self refresh per rank (pJ)
system.mem_ctrls_0.totalEnergy           846027090885                       # Total energy per rank (pJ)
system.mem_ctrls_0.totalIdleTime                    0                       # Total Idle time Per DRAM Rank
system.mem_ctrls_0.writeEnergy            10110711960                       # Energy for write commands per rank (pJ)
system.mem_ctrls_1.actBackEnergy         344916985830                       # Energy for active background per rank (pJ)
system.mem_ctrls_1.actEnergy               3090384780                       # Energy for activate commands per rank (pJ)
system.mem_ctrls_1.actPowerDownEnergy               0                       # Energy for active power-down per rank (pJ)
system.mem_ctrls_1.averagePower            513.495514                       # Core power per rank (mW)
system.mem_ctrls_1.memoryStateTime::IDLE 883602930987                       # Time in different power states
system.mem_ctrls_1.memoryStateTime::REF   55023020000                       # Time in different power states
system.mem_ctrls_1.memoryStateTime::SREF            0                       # Time in different power states
system.mem_ctrls_1.memoryStateTime::PRE_PDN            0                       # Time in different power states
system.mem_ctrls_1.memoryStateTime::ACT  709161505013                       # Time in different power states
system.mem_ctrls_1.memoryStateTime::ACT_PDN            0                       # Time in different power states
system.mem_ctrls_1.preBackEnergy         342293974080                       # Energy for precharge background per rank (pJ)
system.mem_ctrls_1.preEnergy               1642555695                       # Energy for precharge commands per rank (pJ)
system.mem_ctrls_1.prePowerDownEnergy               0                       # Energy for precharge power-down per rank (pJ)
system.mem_ctrls_1.readEnergy             13994499960                       # Energy for read commands per rank (pJ)
system.mem_ctrls_1.refreshEnergy         130074419280.000015                       # Energy for refresh commands per rank (pJ)
system.mem_ctrls_1.selfRefreshEnergy                0                       # Energy for self refresh per rank (pJ)
system.mem_ctrls_1.totalEnergy           846131465985                       # Total energy per rank (pJ)
system.mem_ctrls_1.totalIdleTime                    0                       # Total Idle time Per DRAM Rank
system.mem_ctrls_1.writeEnergy            10118646360                       # Energy for write commands per rank (pJ)
system.membus.pkt_count_system.l2.mem_side::system.mem_ctrls.port     11723940                       # Packet count per connected master and slave (bytes)
system.membus.pkt_count_system.l2.mem_side::total     11723940                       # Packet count per connected master and slave (bytes)
system.membus.pkt_count::total               11723940                       # Packet count per connected master and slave (bytes)
system.membus.pkt_size_system.l2.mem_side::system.mem_ctrls.port    498835968                       # Cumulative packet size per connected master and slave (bytes)
system.membus.pkt_size_system.l2.mem_side::total    498835968                       # Cumulative packet size per connected master and slave (bytes)
system.membus.pkt_size::total               498835968                       # Cumulative packet size per connected master and slave (bytes)
system.membus.pwrStateResidencyTicks::UNDEFINED 1647787456000                       # Cumulative time (in ticks) in various power states
system.membus.reqLayer2.occupancy         23961657839                       # Layer occupancy (ticks)
system.membus.reqLayer2.utilization               1.5                       # Layer utilization (%)
system.membus.respLayer1.occupancy        20288371581                       # Layer occupancy (ticks)
system.membus.respLayer1.utilization              1.2                       # Layer utilization (%)
system.membus.snoopTraffic                          0                       # Total snoop traffic (bytes)
system.membus.snoop_fanout::samples           3918933                       # Request fanout histogram
system.membus.snoop_fanout::mean                    0                       # Request fanout histogram
system.membus.snoop_fanout::stdev                   0                       # Request fanout histogram
system.membus.snoop_fanout::underflows              0      0.00%      0.00% # Request fanout histogram
system.membus.snoop_fanout::0                 3918933    100.00%    100.00% # Request fanout histogram
system.membus.snoop_fanout::1                       0      0.00%    100.00% # Request fanout histogram
system.membus.snoop_fanout::overflows               0      0.00%    100.00% # Request fanout histogram
system.membus.snoop_fanout::min_value               0                       # Request fanout histogram
system.membus.snoop_fanout::max_value               0                       # Request fanout histogram
system.membus.snoop_fanout::total             3918933                       # Request fanout histogram
system.membus.snoop_filter.hit_multi_requests            0                       # Number of requests hitting in the snoop filter with multiple (>1) holders of the requested data.
system.membus.snoop_filter.hit_multi_snoops            0                       # Number of snoops hitting in the snoop filter with multiple (>1) holders of the requested data.
system.membus.snoop_filter.hit_single_requests      3886077                       # Number of requests hitting in the snoop filter with a single holder of the requested data.
system.membus.snoop_filter.hit_single_snoops            0                       # Number of snoops hitting in the snoop filter with a single holder of the requested data.
system.membus.snoop_filter.tot_requests       7805007                       # Total number of requests made to the snoop filter.
system.membus.snoop_filter.tot_snoops               0                       # Total number of snoops made to the snoop filter.
system.membus.snoops                                0                       # Total snoops (count)
system.membus.trans_dist::ReadResp            3315206                       # Transaction distribution
system.membus.trans_dist::WritebackDirty      3875379                       # Transaction distribution
system.membus.trans_dist::CleanEvict            10695                       # Transaction distribution
system.membus.trans_dist::ReadExReq            603727                       # Transaction distribution
system.membus.trans_dist::ReadExResp           603727                       # Transaction distribution
system.membus.trans_dist::ReadSharedReq       3315206                       # Transaction distribution
system.tol2bus.pkt_count_system.cpu.icache.mem_side::system.l2.cpu_side       456985                       # Packet count per connected master and slave (bytes)
system.tol2bus.pkt_count_system.cpu.dcache.mem_side::system.l2.cpu_side     11841416                       # Packet count per connected master and slave (bytes)
system.tol2bus.pkt_count::total              12298401                       # Packet count per connected master and slave (bytes)
system.tol2bus.pkt_size_system.cpu.icache.mem_side::system.l2.cpu_side     19487104                       # Cumulative packet size per connected master and slave (bytes)
system.tol2bus.pkt_size_system.cpu.dcache.mem_side::system.l2.cpu_side    503196480                       # Cumulative packet size per connected master and slave (bytes)
system.tol2bus.pkt_size::total              522683584                       # Cumulative packet size per connected master and slave (bytes)
system.tol2bus.pwrStateResidencyTicks::UNDEFINED 1647787456000                       # Cumulative time (in ticks) in various power states
system.tol2bus.reqLayer0.occupancy         8700437001                       # Layer occupancy (ticks)
system.tol2bus.reqLayer0.utilization              0.5                       # Layer utilization (%)
system.tol2bus.respLayer0.occupancy         228780935                       # Layer occupancy (ticks)
system.tol2bus.respLayer0.utilization             0.0                       # Layer utilization (%)
system.tol2bus.respLayer1.occupancy        5921235469                       # Layer occupancy (ticks)
system.tol2bus.respLayer1.utilization             0.4                       # Layer utilization (%)
system.tol2bus.snoopTraffic                 248024256                       # Total snoop traffic (bytes)
system.tol2bus.snoop_fanout::samples         10971149                       # Request fanout histogram
system.tol2bus.snoop_fanout::mean            0.000595                       # Request fanout histogram
system.tol2bus.snoop_fanout::stdev           0.024384                       # Request fanout histogram
system.tol2bus.snoop_fanout::underflows             0      0.00%      0.00% # Request fanout histogram
system.tol2bus.snoop_fanout::0               10964622     99.94%     99.94% # Request fanout histogram
system.tol2bus.snoop_fanout::1                   6527      0.06%    100.00% # Request fanout histogram
system.tol2bus.snoop_fanout::2                      0      0.00%    100.00% # Request fanout histogram
system.tol2bus.snoop_fanout::3                      0      0.00%    100.00% # Request fanout histogram
system.tol2bus.snoop_fanout::4                      0      0.00%    100.00% # Request fanout histogram
system.tol2bus.snoop_fanout::overflows              0      0.00%    100.00% # Request fanout histogram
system.tol2bus.snoop_fanout::min_value              0                       # Request fanout histogram
system.tol2bus.snoop_fanout::max_value              1                       # Request fanout histogram
system.tol2bus.snoop_fanout::total           10971149                       # Request fanout histogram
system.tol2bus.snoop_filter.hit_multi_requests           52                       # Number of requests hitting in the snoop filter with multiple (>1) holders of the requested data.
system.tol2bus.snoop_filter.hit_multi_snoops            0                       # Number of snoops hitting in the snoop filter with multiple (>1) holders of the requested data.
system.tol2bus.snoop_filter.hit_single_requests      4098444                       # Number of requests hitting in the snoop filter with a single holder of the requested data.
system.tol2bus.snoop_filter.hit_single_snoops         6474                       # Number of snoops hitting in the snoop filter with a single holder of the requested data.
system.tol2bus.snoop_filter.tot_requests      8198422                       # Total number of requests made to the snoop filter.
system.tol2bus.snoop_filter.tot_snoops           6474                       # Total number of snoops made to the snoop filter.
system.tol2bus.snoops                         6871170                       # Total snoops (count)
system.tol2bus.trans_dist::ReadResp           2636044                       # Transaction distribution
system.tol2bus.trans_dist::WritebackDirty      7790344                       # Transaction distribution
system.tol2bus.trans_dist::WritebackClean       151987                       # Transaction distribution
system.tol2bus.trans_dist::CleanEvict           44294                       # Transaction distribution
system.tol2bus.trans_dist::HardPFReq          2982988                       # Transaction distribution
system.tol2bus.trans_dist::ReadExReq          1463935                       # Transaction distribution
system.tol2bus.trans_dist::ReadExResp         1463935                       # Transaction distribution
system.tol2bus.trans_dist::ReadCleanReq        152499                       # Transaction distribution
system.tol2bus.trans_dist::ReadSharedReq      2483545                       # Transaction distribution
system.voltage_domain.voltage                       1                       # Voltage in Volts

---------- End Simulation Statistics   ----------
